/*--------------------------------*- C++ -*----------------------------------*\
| =========                 |                                                 |
| \\      /  F ield         | OpenFOAM: The Open Source CFD Toolbox           |
|  \\    /   O peration     | Version:  1.6                                   |
|   \\  /    A nd           | Web:      www.OpenFOAM.org                      |
|    \\/     M anipulation  |                                                 |
\*---------------------------------------------------------------------------*/
FoamFile
{
    version     2.0;
    format      ascii;
    class       dictionary;
    object      transportProperties;
}
// * * * * * * * * * * * * * * * * * * * * * * * * * * * * * * * * * * * * * //
// water at saturation pressure 101.3 kPa
// properties taken from http://www.peacesoftware.de/einigewerte/calc_dampf.php7

// for Stefan Stefan1DPositionInterface utility
phaseChangeType condensation;
Tinf    Tinf   [0 0  0  1 0 0 0]    293;// wall temperature 
Tw    Tw   [0 0  0  1 0 0 0]    293;// wall temperature 

// ************************************************************************* //
